Version 4
SHEET 1 1500 788
WIRE -304 32 -304 16
WIRE -128 32 -128 16
WIRE 912 240 768 240
WIRE 768 336 768 240
WIRE 800 336 768 336
WIRE 912 352 912 240
WIRE 912 352 864 352
WIRE 976 352 912 352
WIRE 992 352 976 352
WIRE 800 368 448 368
WIRE 144 384 64 384
WIRE 272 384 208 384
WIRE 912 384 912 352
WIRE 480 496 480 448
WIRE 512 496 480 496
WIRE -32 512 -80 512
WIRE 64 512 64 384
WIRE 64 512 48 512
WIRE 144 512 64 512
WIRE 656 512 576 512
WIRE 736 512 656 512
WIRE 272 528 272 384
WIRE 272 528 208 528
WIRE 336 528 272 528
WIRE 448 528 448 368
WIRE 448 528 416 528
WIRE 512 528 448 528
WIRE 144 544 96 544
WIRE 544 576 544 544
WIRE 96 592 96 544
WIRE 176 592 176 560
WIRE 448 688 448 528
WIRE 512 688 448 688
WIRE 656 688 656 512
WIRE 656 688 592 688
WIRE -80 784 -80 512
WIRE 656 784 656 688
WIRE 656 784 -80 784
FLAG -304 112 0
FLAG -304 16 VCC
FLAG 176 496 VCC
FLAG -128 112 0
FLAG -128 16 VEE
FLAG 176 592 VEE
FLAG 96 592 0
FLAG 544 480 VCC
FLAG 544 576 VEE
FLAG 480 448 0
FLAG 976 352 pendelum
FLAG 832 320 VCC
FLAG 832 384 0
SYMBOL voltage -304 16 R0
WINDOW 123 0 0 Left 0
WINDOW 39 0 0 Left 0
SYMATTR InstName V1
SYMATTR Value 5
SYMBOL Opamps\\UniversalOpamp2 176 528 R0
SYMATTR InstName U2
SYMBOL voltage -128 16 R0
WINDOW 123 0 0 Left 0
WINDOW 39 0 0 Left 0
SYMATTR InstName V2
SYMATTR Value -5
SYMBOL res 64 496 R90
WINDOW 0 0 56 VBottom 2
WINDOW 3 32 56 VTop 2
SYMATTR InstName R1
SYMATTR Value 100k
SYMBOL cap 208 368 R90
WINDOW 0 0 32 VBottom 2
WINDOW 3 32 32 VTop 2
SYMATTR InstName C1
SYMATTR Value 1µ
SYMBOL res 432 512 R90
WINDOW 0 0 56 VBottom 2
WINDOW 3 32 56 VTop 2
SYMATTR InstName R2
SYMATTR Value 10k
SYMBOL Opamps\\UniversalOpamp2 544 512 R0
SYMATTR InstName U1
SYMBOL res 608 672 R90
WINDOW 0 0 56 VBottom 2
WINDOW 3 32 56 VTop 2
SYMATTR InstName R3
SYMATTR Value 10k
SYMBOL Opamps\\UniversalOpamp2 832 352 R0
SYMATTR InstName U3
TEXT -536 280 Left 2 !.tran 0 1s 0 10us startup uic
TEXT -152 -136 Left 2 ;Using triangle wave instead of square wave since need more than 2 values for comparison.
TEXT 8 -72 Left 2 ;frequency: ( 1 / (4*R1*C1) ) * ( R3 / R2 )
TEXT -16 -24 Left 2 ;triangle wave volt output: VCC*( R2 / R3 )
TEXT 16 24 Left 2 ;Has low impedance input.
