Version 4
SHEET 1 880 680
WIRE -304 32 -304 16
WIRE 128 96 128 64
WIRE 128 96 112 96
WIRE 160 96 128 96
WIRE 256 96 240 96
WIRE 128 176 128 96
WIRE 176 176 128 176
WIRE 208 176 176 176
WIRE 336 192 336 96
WIRE 336 192 272 192
WIRE 400 192 336 192
WIRE 480 192 480 160
WIRE 480 192 400 192
WIRE 528 192 480 192
WIRE 208 208 192 208
WIRE 192 256 192 208
WIRE 240 256 240 224
WIRE 80 272 64 272
WIRE 192 272 192 256
WIRE 192 272 160 272
WIRE 64 320 64 272
WIRE 400 320 400 272
WIRE 192 336 192 272
WIRE 208 336 192 336
WIRE 336 336 336 192
WIRE 336 336 288 336
FLAG 240 160 VCC
FLAG 240 256 0
FLAG 128 0 0
FLAG 64 320 0
FLAG 176 176 V-
FLAG 192 256 V+
FLAG 400 320 0
FLAG 480 160 pendelum
FLAG -304 112 0
FLAG -304 16 VCC
SYMBOL Opamps\\UniversalOpamp2 240 192 R0
SYMATTR InstName U1
SYMBOL res 176 256 R90
WINDOW 0 0 56 VBottom 2
WINDOW 3 32 56 VTop 2
SYMATTR InstName R1
SYMATTR Value 1Meg
SYMBOL res 304 320 R90
WINDOW 0 0 56 VBottom 2
WINDOW 3 32 56 VTop 2
SYMATTR InstName R2
SYMATTR Value 1k
SYMBOL res 256 80 R90
WINDOW 0 0 56 VBottom 2
WINDOW 3 32 56 VTop 2
SYMATTR InstName RPOT1
SYMATTR Value 1k
SYMBOL cap 144 64 R180
WINDOW 0 24 56 Left 2
WINDOW 3 24 8 Left 2
SYMATTR InstName C1
SYMATTR Value 2µ
SYMBOL res 384 176 R0
SYMATTR InstName R3
SYMATTR Value 10k
SYMBOL res 352 80 R90
WINDOW 0 -3 14 VBottom 2
WINDOW 3 32 56 VTop 2
SYMATTR InstName R_low_offset1
SYMATTR Value 1k
SYMBOL voltage -304 16 R0
WINDOW 123 0 0 Left 0
WINDOW 39 0 0 Left 0
SYMATTR InstName V1
SYMATTR Value 5
TEXT -536 280 Left 2 !.tran 0 0.5s 0 10us startup uic
