Version 4
SHEET 1 3152 1228
WIRE 1152 544 1152 496
WIRE 1440 560 1440 512
WIRE 1984 560 1984 512
WIRE 1104 624 976 624
WIRE 1328 640 1312 640
WIRE 1392 640 1328 640
WIRE 1936 640 1808 640
WIRE 1440 656 1440 640
WIRE 1152 720 1152 640
WIRE 1232 720 1152 720
WIRE 1440 720 1440 656
WIRE 1536 720 1440 720
WIRE 1984 736 1984 656
WIRE 2080 736 1984 736
WIRE 1440 752 1440 720
WIRE 1152 800 1152 720
WIRE 1984 816 1984 736
WIRE 1440 880 1440 832
WIRE 1152 992 1152 880
WIRE 1984 1008 1984 896
FLAG -32 448 0
FLAG -224 368 VCC
FLAG -224 448 0
FLAG -32 368 VEE
FLAG 176 832 0
FLAG 176 752 P1_it
FLAG 432 832 0
FLAG 432 752 P2_it
FLAG 160 1184 0
FLAG 160 1104 collision_detect
FLAG 976 624 collision_detect
FLAG 1152 496 P1_it
FLAG 1152 992 0
FLAG 1328 640 P2_it
FLAG 1440 512 P1_it
FLAG 1440 880 0
FLAG 1808 640 collision_detect
FLAG 1984 512 P2_it
FLAG 1984 1008 0
FLAG 2080 736 p2_win
FLAG 1232 720 p1_win
FLAG 1536 720 two_winner_ignore
SYMBOL voltage -32 352 R0
WINDOW 123 0 0 Left 2
WINDOW 39 0 0 Left 2
SYMATTR InstName V1
SYMATTR Value -3
SYMBOL voltage -224 352 R0
WINDOW 123 0 0 Left 2
WINDOW 39 0 0 Left 2
SYMATTR InstName V2
SYMATTR Value 3
SYMBOL voltage 176 736 R0
WINDOW 0 21 20 Left 2
WINDOW 123 24 124 Left 2
WINDOW 39 0 0 Left 0
SYMATTR InstName V3
SYMATTR Value2 AC 1
SYMATTR Value PULSE(0 3 0.5 0.1 0.1 1)
SYMBOL voltage 432 736 R0
WINDOW 0 21 20 Left 2
WINDOW 123 24 124 Left 2
WINDOW 39 0 0 Left 0
SYMATTR InstName V4
SYMATTR Value2 AC 1
SYMATTR Value PULSE(0 3 1 0.1 0.1 1)
SYMBOL nmos 1104 544 R0
SYMATTR InstName M1
SYMATTR Value RUL035N02
SYMBOL voltage 160 1088 R0
WINDOW 0 21 20 Left 2
WINDOW 123 24 124 Left 2
WINDOW 39 0 0 Left 0
SYMATTR InstName V5
SYMATTR Value2 AC 1
SYMATTR Value PULSE(0 3 0.5 0.1 0.1 0.8)
SYMBOL res 1136 784 R0
SYMATTR InstName R1
SYMATTR Value 1k
SYMBOL nmos 1392 560 R0
SYMATTR InstName M2
SYMATTR Value RUL035N02
SYMBOL res 1424 736 R0
SYMATTR InstName R2
SYMATTR Value 1k
SYMBOL nmos 1936 560 R0
SYMATTR InstName M3
SYMATTR Value RUL035N02
SYMBOL res 1968 800 R0
SYMATTR InstName R3
SYMATTR Value 1k
TEXT -112 616 Left 2 !.op
TEXT -200 536 Left 2 !.tran 0 2s 0 10us
