Version 4
SHEET 1 916 680
WIRE 640 -176 -112 -176
WIRE 640 -128 640 -176
WIRE 640 -128 -320 -128
WIRE -112 -112 -112 -176
WIRE -224 -16 -464 -16
WIRE -112 -16 -112 -48
WIRE -112 -16 -224 -16
WIRE -32 -16 -112 -16
WIRE 352 -16 224 -16
WIRE 464 -16 352 -16
WIRE 528 -16 464 -16
WIRE 640 -16 640 -128
WIRE 640 -16 592 -16
WIRE 720 -16 640 -16
WIRE 736 -16 720 -16
WIRE 720 0 720 -16
WIRE 352 16 352 -16
WIRE 464 16 464 -16
WIRE -224 32 -224 -16
WIRE 640 32 640 -16
WIRE -112 112 -112 -16
WIRE -32 112 -112 112
WIRE 352 112 352 80
WIRE 352 112 224 112
WIRE -224 128 -224 96
WIRE 464 128 464 96
WIRE 544 128 464 128
WIRE 640 128 640 96
WIRE 640 128 544 128
WIRE 688 128 640 128
WIRE 736 128 688 128
WIRE 544 160 544 128
WIRE -32 240 -96 240
WIRE 256 240 224 240
WIRE -320 448 -320 -128
WIRE -96 448 -96 240
WIRE -96 448 -320 448
WIRE 16 448 -96 448
WIRE 256 448 256 240
WIRE 256 448 96 448
WIRE 336 448 256 448
WIRE 688 448 688 128
WIRE 688 448 416 448
FLAG -224 128 0
FLAG 544 160 0
FLAG 736 -16 vout_neg_reg
FLAG -464 -16 VCC
FLAG -848 -64 VCC
FLAG -848 16 0
FLAG 720 80 0
SYMBOL PowerProducts\\ADP2300 96 112 R0
SYMATTR InstName U1
SYMBOL ind 448 0 R0
SYMATTR InstName L1
SYMATTR Value 4.7µ
SYMBOL schottky 592 -32 R90
WINDOW 0 -4 32 VBottom 2
WINDOW 3 36 32 VTop 2
SYMATTR InstName D1
SYMATTR Value MBR0520L
SYMATTR Description Zener Diode
SYMATTR Type zener
SYMBOL polcap 336 16 R0
SYMATTR InstName C1
SYMATTR Value 100n
SYMBOL polcap 656 96 R180
WINDOW 0 24 57 Left 2
WINDOW 3 24 8 Left 2
SYMATTR InstName C2
SYMATTR Value 10µ
SYMBOL res 432 432 R90
WINDOW 0 0 56 VBottom 2
WINDOW 3 32 56 VTop 2
SYMATTR InstName R1
SYMATTR Value 14.7k
SYMBOL polcap -240 32 R0
SYMATTR InstName C3
SYMATTR Value 4.7µ
SYMBOL res 112 432 R90
WINDOW 0 0 56 VBottom 2
WINDOW 3 32 56 VTop 2
SYMATTR InstName R2
SYMATTR Value 2.8k
SYMBOL polcap -96 -48 R180
WINDOW 0 24 57 Left 2
WINDOW 3 24 8 Left 2
SYMATTR InstName C4
SYMATTR Value 2.2µ
SYMBOL voltage -848 -80 R0
WINDOW 123 0 0 Left 2
WINDOW 39 0 0 Left 2
SYMATTR InstName V1
SYMATTR Value 5
SYMBOL res 704 -16 R0
SYMATTR InstName RLoad
SYMATTR Value 10k
TEXT -888 536 Left 2 !;op
TEXT -632 640 Left 2 ;Circuit adapted from application note AN-1083.pdf Figure 8 reference design 4
TEXT -856 560 Left 2 !.tran 0 0.5 0 0.1 steady
