Version 4
SHEET 1 3152 680
WIRE -896 -560 -944 -560
WIRE -800 -560 -832 -560
WIRE -944 -464 -944 -560
WIRE -896 -464 -944 -464
WIRE -800 -464 -800 -560
WIRE -800 -464 -816 -464
WIRE -160 -384 -208 -384
WIRE 16 -384 -80 -384
WIRE -1296 -352 -1296 -400
WIRE -1184 -352 -1296 -352
WIRE -1056 -352 -1104 -352
WIRE -944 -352 -944 -464
WIRE -944 -352 -992 -352
WIRE -912 -352 -944 -352
WIRE -800 -336 -800 -464
WIRE -800 -336 -848 -336
WIRE -496 -336 -496 -384
WIRE -496 -336 -800 -336
WIRE -912 -320 -944 -320
WIRE -1296 -288 -1296 -352
WIRE -496 -224 -496 -336
WIRE -336 -224 -496 -224
WIRE -208 -224 -208 -384
WIRE -208 -224 -256 -224
WIRE -128 -224 -208 -224
WIRE -944 -208 -944 -320
WIRE 16 -208 16 -384
WIRE 16 -208 -64 -208
WIRE 160 -208 160 -272
WIRE 160 -208 16 -208
WIRE 240 -208 160 -208
WIRE 432 -208 240 -208
WIRE -128 -192 -144 -192
WIRE 624 -176 592 -176
WIRE 768 -176 704 -176
WIRE 432 -160 432 -208
WIRE 240 -144 240 -208
WIRE -912 -112 -960 -112
WIRE -816 -112 -848 -112
WIRE -336 -96 -400 -96
WIRE -192 -96 -256 -96
WIRE -144 -96 -144 -192
WIRE -144 -96 -192 -96
WIRE 432 -96 432 -112
WIRE -192 -64 -192 -96
WIRE 240 -64 240 -80
WIRE 240 -64 192 -64
WIRE 336 -64 240 -64
WIRE 432 -64 432 -96
WIRE 480 -64 432 -64
WIRE 592 -64 592 -176
WIRE 592 -64 560 -64
WIRE 656 -64 592 -64
WIRE 768 -48 768 -176
WIRE 768 -48 720 -48
WIRE 816 -48 768 -48
WIRE 240 -32 240 -64
WIRE 432 -32 432 -64
WIRE 656 -32 608 -32
WIRE -960 -16 -960 -112
WIRE -912 -16 -960 -16
WIRE -816 -16 -816 -112
WIRE -816 -16 -832 -16
WIRE 608 0 608 -32
WIRE -1296 96 -1296 64
WIRE -1200 96 -1296 96
WIRE -1072 96 -1120 96
WIRE -960 96 -960 -16
WIRE -960 96 -1008 96
WIRE -928 96 -960 96
WIRE -816 112 -816 -16
WIRE -816 112 -864 112
WIRE -496 112 -496 80
WIRE -496 112 -816 112
WIRE -400 112 -400 -96
WIRE -400 112 -496 112
WIRE -928 128 -960 128
WIRE 240 128 240 48
WIRE -1296 176 -1296 96
WIRE -960 240 -960 128
FLAG -1808 -288 0
FLAG -2000 -368 VCC
FLAG -2000 -288 0
FLAG -1808 -368 VEE
FLAG -1296 -208 0
FLAG -896 80 VCC
FLAG -896 144 VEE
FLAG -96 -240 VCC
FLAG -96 -176 VEE
FLAG -192 16 0
FLAG 160 -272 diff
FLAG 192 -64 P2_it
FLAG 240 128 0
FLAG 688 -80 VCC
FLAG 688 -16 VEE
FLAG 608 0 0
FLAG 816 -48 P1_it
FLAG -496 -384 P1_it_val
FLAG -1296 -400 P1_button_input
FLAG -1296 256 0
FLAG -1296 64 P2_button_input
FLAG -960 240 0
FLAG -880 -368 VCC
FLAG -880 -304 VEE
FLAG -944 -208 0
FLAG -496 80 P2_it_val
SYMBOL voltage -1808 -384 R0
WINDOW 123 0 0 Left 2
WINDOW 39 0 0 Left 2
SYMATTR InstName V1
SYMATTR Value -3
SYMBOL voltage -2000 -384 R0
WINDOW 123 0 0 Left 2
WINDOW 39 0 0 Left 2
SYMATTR InstName V2
SYMATTR Value 3
SYMBOL voltage -1296 -304 R0
WINDOW 0 21 20 Left 2
WINDOW 123 24 124 Left 2
WINDOW 39 0 0 Left 0
WINDOW 3 48 65 Left 2
SYMATTR InstName V3
SYMATTR Value2 AC 1
SYMATTR Value PULSE(0 3.3 0.1 0.002 0.002 0.5)
SYMBOL Opamps\\UniversalOpamp2 -896 112 R0
SYMATTR InstName U4
SYMBOL Opamps\\UniversalOpamp2 -96 -208 R0
SYMATTR InstName U5
SYMBOL res -64 -400 R90
WINDOW 0 0 56 VBottom 2
WINDOW 3 32 56 VTop 2
SYMATTR InstName R1
SYMATTR Value 10k
SYMBOL res -208 -80 R0
SYMATTR InstName R2
SYMATTR Value 10k
SYMBOL res -240 -240 R90
WINDOW 0 0 56 VBottom 2
WINDOW 3 32 56 VTop 2
SYMATTR InstName R3
SYMATTR Value 10k
SYMBOL res -240 -112 R90
WINDOW 0 0 56 VBottom 2
WINDOW 3 32 56 VTop 2
SYMATTR InstName R4
SYMATTR Value 10k
SYMBOL diode 224 -144 R0
SYMATTR InstName D1
SYMATTR Value 1N914
SYMBOL res 224 -48 R0
SYMATTR InstName R5
SYMATTR Value 10k
SYMBOL diode 448 -96 R180
WINDOW 0 24 64 Left 2
WINDOW 3 24 0 Left 2
SYMATTR InstName D2
SYMATTR Value 1N914
SYMBOL Opamps\\UniversalOpamp2 688 -48 R0
SYMATTR InstName U6
SYMBOL res 720 -192 R90
WINDOW 0 0 56 VBottom 2
WINDOW 3 32 56 VTop 2
SYMATTR InstName R6
SYMATTR Value 10k
SYMBOL res 576 -80 R90
WINDOW 0 0 56 VBottom 2
WINDOW 3 32 56 VTop 2
SYMATTR InstName R7
SYMATTR Value 10k
SYMBOL voltage -1296 160 R0
WINDOW 0 21 20 Left 2
WINDOW 123 24 124 Left 2
WINDOW 39 0 0 Left 0
SYMATTR InstName V4
SYMATTR Value2 AC 1
SYMATTR Value PULSE(0 3.3 0.15 0.002 0.002 1)
SYMBOL res -1104 80 R90
WINDOW 0 0 56 VBottom 2
WINDOW 3 32 56 VTop 2
SYMATTR InstName R12
SYMATTR Value 10k
SYMBOL cap -1008 80 R90
WINDOW 0 0 32 VBottom 2
WINDOW 3 32 32 VTop 2
SYMATTR InstName C3
SYMATTR Value 3.3µ
SYMBOL cap -848 -128 R90
WINDOW 0 0 32 VBottom 2
WINDOW 3 32 32 VTop 2
SYMATTR InstName C4
SYMATTR Value 1µ
SYMBOL res -816 -32 R90
WINDOW 0 0 56 VBottom 2
WINDOW 3 32 56 VTop 2
SYMATTR InstName R13
SYMATTR Value 10k
SYMBOL Opamps\\UniversalOpamp2 -880 -336 R0
SYMATTR InstName U2
SYMBOL res -1088 -368 R90
WINDOW 0 0 56 VBottom 2
WINDOW 3 32 56 VTop 2
SYMATTR InstName R15
SYMATTR Value 10k
SYMBOL cap -992 -368 R90
WINDOW 0 0 32 VBottom 2
WINDOW 3 32 32 VTop 2
SYMATTR InstName C5
SYMATTR Value 3.3µ
SYMBOL cap -832 -576 R90
WINDOW 0 0 32 VBottom 2
WINDOW 3 32 32 VTop 2
SYMATTR InstName C6
SYMATTR Value 1µ
SYMBOL res -800 -480 R90
WINDOW 0 0 56 VBottom 2
WINDOW 3 32 56 VTop 2
SYMATTR InstName R16
SYMATTR Value 10k
TEXT -344 -696 Left 2 ;Circuit to determine which player is It.
TEXT -1840 -136 Left 2 !.tran 0 2s 0 0.1s
TEXT -1824 -216 Left 2 !;ac dec 10 1 1G
TEXT -1704 -80 Left 2 !.op
TEXT -296 -480 Left 2 ;P2_val - P1_val
TEXT -376 -544 Left 2 ;Find difference between player values
TEXT -1328 -728 Left 2 ;Take rate of change of button press. Positive wave form on release
TEXT -1744 -656 Left 2 ;Push-button switch is modelled as a square wave with 2 ms rise time and fall time.
TEXT -320 -656 Left 2 ;i.e. has the highest attack value.
TEXT -1024 400 Left 2 ;Differentiator stats
TEXT -1112 440 Left 2 ;F_low = 1 / (Cin*Rfeedback) = 30 Hz
TEXT -1120 480 Left 2 ;F_high = 1 / (Cfeedback*Rin) = 100 Hz
TEXT -1120 520 Left 2 ;DC Gain = Rfeedback / Rin = 1 = 0 dB
