Version 4
SHEET 1 2824 864
WIRE 112 -368 -304 -368
WIRE 288 -368 192 -368
WIRE -848 -336 -896 -336
WIRE -672 -336 -768 -336
WIRE -96 -256 -160 -256
WIRE 16 -256 -16 -256
WIRE 112 -256 16 -256
WIRE 288 -256 288 -368
WIRE 288 -256 192 -256
WIRE 16 -208 16 -256
WIRE -1008 -176 -1088 -176
WIRE -896 -176 -896 -336
WIRE -896 -176 -928 -176
WIRE -816 -176 -896 -176
WIRE -672 -160 -672 -336
WIRE -672 -160 -752 -160
WIRE -528 -160 -528 -192
WIRE -528 -160 -672 -160
WIRE -816 -144 -832 -144
WIRE -160 -112 -160 -256
WIRE -80 -112 -160 -112
WIRE 16 -112 16 -144
WIRE 16 -112 -16 -112
WIRE 752 -64 720 -64
WIRE 896 -64 832 -64
WIRE -1008 -48 -1104 -48
WIRE -880 -48 -928 -48
WIRE -832 -48 -832 -144
WIRE -832 -48 -880 -48
WIRE -880 -16 -880 -48
WIRE -528 0 -528 -160
WIRE -304 0 -304 -368
WIRE -304 0 -528 0
WIRE -272 0 -304 0
WIRE -160 0 -160 -112
WIRE -160 0 -192 0
WIRE -96 0 -160 0
WIRE 16 16 16 -112
WIRE 16 16 -32 16
WIRE -96 32 -144 32
WIRE 288 48 288 -256
WIRE 720 48 720 -64
WIRE 720 48 288 48
WIRE 784 48 720 48
WIRE 896 64 896 -64
WIRE 896 64 848 64
WIRE 944 64 896 64
WIRE -144 80 -144 32
WIRE 784 80 736 80
WIRE 736 112 736 80
WIRE 944 112 944 64
WIRE 1296 112 1296 64
WIRE 1296 112 944 112
WIRE 1376 112 1296 112
WIRE 1520 112 1456 112
WIRE 752 240 720 240
WIRE 896 240 832 240
WIRE 1296 240 1152 240
WIRE 1360 240 1296 240
WIRE 1520 240 1520 112
WIRE 1520 240 1440 240
WIRE 1296 272 1296 240
WIRE 1600 272 1600 224
WIRE 1648 272 1600 272
WIRE 1824 272 1728 272
WIRE 112 336 -304 336
WIRE 288 336 192 336
WIRE 720 336 720 240
WIRE 720 336 288 336
WIRE 720 352 720 336
WIRE 784 352 720 352
WIRE 896 368 896 240
WIRE 896 368 848 368
WIRE 1152 368 1152 240
WIRE 1152 368 896 368
WIRE 784 384 736 384
WIRE -864 400 -912 400
WIRE -688 400 -784 400
WIRE 736 416 736 384
WIRE 1600 432 1600 272
WIRE 1680 432 1600 432
WIRE 1952 432 1952 384
WIRE 2240 432 1952 432
WIRE -96 448 -160 448
WIRE 16 448 -16 448
WIRE 112 448 16 448
WIRE 288 448 288 336
WIRE 288 448 192 448
WIRE 1824 448 1824 272
WIRE 1824 448 1744 448
WIRE 1952 448 1952 432
WIRE 1952 448 1824 448
WIRE 1520 464 1520 240
WIRE 1680 464 1520 464
WIRE 16 496 16 448
WIRE 2240 544 2240 432
WIRE 2272 544 2240 544
WIRE -1024 560 -1088 560
WIRE -912 560 -912 400
WIRE -912 560 -944 560
WIRE -832 560 -912 560
WIRE 2400 560 2336 560
WIRE 2512 560 2464 560
WIRE 2624 560 2512 560
WIRE -688 576 -688 400
WIRE -688 576 -768 576
WIRE -544 576 -544 528
WIRE -544 576 -688 576
WIRE 2176 576 2176 560
WIRE 2272 576 2176 576
WIRE -832 592 -848 592
WIRE -160 592 -160 448
WIRE -80 592 -160 592
WIRE 16 592 16 560
WIRE 16 592 -16 592
WIRE -1024 688 -1088 688
WIRE -896 688 -944 688
WIRE -848 688 -848 592
WIRE -848 688 -896 688
WIRE -544 704 -544 576
WIRE -304 704 -304 336
WIRE -304 704 -544 704
WIRE -272 704 -304 704
WIRE -160 704 -160 592
WIRE -160 704 -192 704
WIRE -96 704 -160 704
WIRE -896 720 -896 688
WIRE 16 720 16 592
WIRE 16 720 -32 720
WIRE -96 736 -144 736
WIRE -144 784 -144 736
FLAG -784 -192 VCC
FLAG -784 -128 VEE
FLAG -880 64 0
FLAG -1088 -176 P1x
FLAG -1104 -48 P2x
FLAG -800 544 VCC
FLAG -800 608 VEE
FLAG -896 800 0
FLAG -1088 560 P1y
FLAG -1088 688 P2y
FLAG 1712 416 VCC
FLAG 1712 480 VEE
FLAG 1600 144 0
FLAG -528 -192 xdiff
FLAG -544 528 ydiff
FLAG 1296 64 abs_xdiff
FLAG 1296 272 abs_ydiff
FLAG 1952 384 abs_sum_xdiff_ydiff
FLAG -64 -16 VCC
FLAG -64 48 VEE
FLAG -144 80 0
FLAG 2624 560 collision_detect
FLAG -64 688 VCC
FLAG -64 752 VEE
FLAG -144 784 0
FLAG 816 32 VCC
FLAG 816 96 VEE
FLAG 736 112 0
FLAG 816 336 VCC
FLAG 816 400 VEE
FLAG 736 416 0
FLAG 2304 528 VCC
FLAG 2304 592 VEE
FLAG 2176 656 0
FLAG 2176 480 VCC
FLAG 2512 640 0
FLAG -1344 -304 0
FLAG -1536 -384 VCC
FLAG -1536 -304 0
FLAG -1344 -384 VEE
FLAG -1552 16 0
FLAG -1408 16 0
FLAG -1552 288 0
FLAG -1408 288 0
FLAG -1408 -64 P1y
FLAG -1408 208 P2y
FLAG -1552 208 P2x
FLAG -1552 -64 P1x
SYMBOL Opamps\\UniversalOpamp2 -784 -160 R0
SYMATTR InstName U1
SYMBOL res -752 -352 R90
WINDOW 0 0 56 VBottom 2
WINDOW 3 32 56 VTop 2
SYMATTR InstName R1
SYMATTR Value 10k
SYMBOL res -896 -32 R0
SYMATTR InstName R2
SYMATTR Value 10k
SYMBOL Opamps\\UniversalOpamp2 -800 576 R0
SYMATTR InstName U2
SYMBOL res -768 384 R90
WINDOW 0 0 56 VBottom 2
WINDOW 3 32 56 VTop 2
SYMATTR InstName R3
SYMATTR Value 10k
SYMBOL res -912 704 R0
SYMATTR InstName R4
SYMATTR Value 10k
SYMBOL res -912 -192 R90
WINDOW 0 0 56 VBottom 2
WINDOW 3 32 56 VTop 2
SYMATTR InstName R5
SYMATTR Value 10k
SYMBOL res -912 -64 R90
WINDOW 0 0 56 VBottom 2
WINDOW 3 32 56 VTop 2
SYMATTR InstName R6
SYMATTR Value 10k
SYMBOL res -928 544 R90
WINDOW 0 0 56 VBottom 2
WINDOW 3 32 56 VTop 2
SYMATTR InstName R7
SYMATTR Value 10k
SYMBOL res -928 672 R90
WINDOW 0 0 56 VBottom 2
WINDOW 3 32 56 VTop 2
SYMATTR InstName R8
SYMATTR Value 10k
SYMBOL res 1472 96 R90
WINDOW 0 0 56 VBottom 2
WINDOW 3 32 56 VTop 2
SYMATTR InstName R9
SYMATTR Value 10k
SYMBOL res 1456 224 R90
WINDOW 0 0 56 VBottom 2
WINDOW 3 32 56 VTop 2
SYMATTR InstName R10
SYMATTR Value 10k
SYMBOL Opamps\\UniversalOpamp2 1712 448 R0
SYMATTR InstName U3
SYMBOL res 1744 256 R90
WINDOW 0 0 56 VBottom 2
WINDOW 3 32 56 VTop 2
SYMATTR InstName R11
SYMATTR Value 10k
SYMBOL res 1584 128 R0
SYMATTR InstName R12
SYMATTR Value 5k
SYMBOL Opamps\\UniversalOpamp2 -64 16 R0
SYMATTR InstName U4
SYMBOL res -176 -16 R90
WINDOW 0 0 56 VBottom 2
WINDOW 3 32 56 VTop 2
SYMATTR InstName R13
SYMATTR Value 10k
SYMBOL diode -16 -128 R90
WINDOW 0 0 32 VBottom 2
WINDOW 3 32 32 VTop 2
SYMATTR InstName D1
SYMATTR Value 1N914
SYMBOL diode 0 -208 R0
SYMATTR InstName D2
SYMATTR Value 1N914
SYMBOL res 0 -272 R90
WINDOW 0 0 56 VBottom 2
WINDOW 3 32 56 VTop 2
SYMATTR InstName R14
SYMATTR Value 10k
SYMBOL res 208 -272 R90
WINDOW 0 0 56 VBottom 2
WINDOW 3 32 56 VTop 2
SYMATTR InstName R15
SYMATTR Value 5k
SYMBOL res 208 -384 R90
WINDOW 0 0 56 VBottom 2
WINDOW 3 32 56 VTop 2
SYMATTR InstName R16
SYMATTR Value 10k
SYMBOL Opamps\\UniversalOpamp2 -64 720 R0
SYMATTR InstName U5
SYMBOL res -176 688 R90
WINDOW 0 0 56 VBottom 2
WINDOW 3 32 56 VTop 2
SYMATTR InstName R17
SYMATTR Value 10k
SYMBOL diode -16 576 R90
WINDOW 0 0 32 VBottom 2
WINDOW 3 32 32 VTop 2
SYMATTR InstName D3
SYMATTR Value 1N914
SYMBOL diode 0 496 R0
SYMATTR InstName D4
SYMATTR Value 1N914
SYMBOL res 0 432 R90
WINDOW 0 0 56 VBottom 2
WINDOW 3 32 56 VTop 2
SYMATTR InstName R18
SYMATTR Value 10k
SYMBOL res 208 432 R90
WINDOW 0 0 56 VBottom 2
WINDOW 3 32 56 VTop 2
SYMATTR InstName R19
SYMATTR Value 5k
SYMBOL res 208 320 R90
WINDOW 0 0 56 VBottom 2
WINDOW 3 32 56 VTop 2
SYMATTR InstName R20
SYMATTR Value 10k
SYMBOL Opamps\\UniversalOpamp2 816 64 R0
SYMATTR InstName U6
SYMBOL res 848 -80 R90
WINDOW 0 0 56 VBottom 2
WINDOW 3 32 56 VTop 2
SYMATTR InstName R21
SYMATTR Value 10k
SYMBOL Opamps\\UniversalOpamp2 816 368 R0
SYMATTR InstName U7
SYMBOL res 848 224 R90
WINDOW 0 0 56 VBottom 2
WINDOW 3 32 56 VTop 2
SYMATTR InstName R22
SYMATTR Value 10k
SYMBOL Opamps\\UniversalOpamp2 2304 560 R0
SYMATTR InstName U8
SYMBOL res 2160 464 R0
SYMATTR InstName R23
SYMATTR Value 100k
SYMBOL res 2160 560 R0
SYMATTR InstName R24
SYMATTR Value 5k
SYMBOL diode 2400 576 R270
WINDOW 0 32 32 VTop 2
WINDOW 3 0 32 VBottom 2
SYMATTR InstName D5
SYMATTR Value 1N914
SYMBOL res 2496 544 R0
SYMATTR InstName R25
SYMATTR Value 10k
SYMBOL voltage -1344 -400 R0
WINDOW 123 0 0 Left 2
WINDOW 39 0 0 Left 2
SYMATTR InstName V1
SYMATTR Value -3.3
SYMBOL voltage -1536 -400 R0
WINDOW 123 0 0 Left 2
WINDOW 39 0 0 Left 2
SYMATTR InstName V2
SYMATTR Value 3.3
SYMBOL voltage -1552 -80 R0
WINDOW 0 21 20 Left 2
WINDOW 123 24 124 Left 2
WINDOW 39 0 0 Left 0
SYMATTR InstName V3
SYMATTR Value2 AC 1
SYMATTR Value SINE(1.5 1.5 10)
SYMBOL voltage -1552 192 R0
WINDOW 123 24 124 Left 2
WINDOW 39 0 0 Left 0
SYMATTR Value2 AC 1
SYMATTR InstName V4
SYMATTR Value 1
SYMBOL voltage -1408 192 R0
WINDOW 123 24 124 Left 2
WINDOW 39 0 0 Left 0
SYMATTR Value2 AC 1
SYMATTR InstName V5
SYMATTR Value 1
SYMBOL voltage -1408 -80 R0
WINDOW 0 21 20 Left 2
WINDOW 123 24 124 Left 2
WINDOW 39 0 0 Left 0
SYMATTR InstName V6
SYMATTR Value2 AC 1
SYMATTR Value SINE(1.5 1.5 10)
TEXT 632 -456 Left 2 ;Player 1 vs Player 2
TEXT 472 -384 Left 2 ;makes collision detection go high to supply voltage.
TEXT 328 -416 Left 2 ;No difference between x and y coordinates of player 1 and player 2 position
TEXT -832 -456 Left 2 ;xdiff
TEXT -792 336 Left 2 ;ydiff
TEXT 1600 48 Left 2 ;abs(xdiff + ydiff)
TEXT 2208 -160 Left 2 ;Postive only zero cross detector circuit
TEXT -1520 -176 Left 2 ;Player 1
TEXT -1520 136 Left 2 ;Player 2
TEXT -1586 846 Left 2 !.tran 2
