Version 4
SHEET 1 2824 864
WIRE 112 -368 -304 -368
WIRE 288 -368 192 -368
WIRE -848 -336 -896 -336
WIRE -672 -336 -768 -336
WIRE -96 -256 -160 -256
WIRE 16 -256 -16 -256
WIRE 112 -256 16 -256
WIRE 288 -256 288 -368
WIRE 288 -256 192 -256
WIRE 16 -208 16 -256
WIRE -1008 -176 -1088 -176
WIRE -896 -176 -896 -336
WIRE -896 -176 -928 -176
WIRE -816 -176 -896 -176
WIRE -672 -160 -672 -336
WIRE -672 -160 -752 -160
WIRE -528 -160 -528 -192
WIRE -528 -160 -672 -160
WIRE -816 -144 -832 -144
WIRE -160 -112 -160 -256
WIRE -80 -112 -160 -112
WIRE 16 -112 16 -144
WIRE 16 -112 -16 -112
WIRE 416 -64 384 -64
WIRE 560 -64 496 -64
WIRE -1008 -48 -1104 -48
WIRE -880 -48 -928 -48
WIRE -832 -48 -832 -144
WIRE -832 -48 -880 -48
WIRE -880 -16 -880 -48
WIRE -528 0 -528 -160
WIRE -304 0 -304 -368
WIRE -304 0 -528 0
WIRE -272 0 -304 0
WIRE -160 0 -160 -112
WIRE -160 0 -192 0
WIRE -96 0 -160 0
WIRE 16 16 16 -112
WIRE 16 16 -32 16
WIRE -96 32 -144 32
WIRE 288 48 288 -256
WIRE 384 48 384 -64
WIRE 384 48 288 48
WIRE 448 48 384 48
WIRE 560 64 560 -64
WIRE 560 64 512 64
WIRE 864 64 864 16
WIRE 864 64 560 64
WIRE 944 64 864 64
WIRE 1088 64 1024 64
WIRE -144 80 -144 32
WIRE 448 80 400 80
WIRE 400 112 400 80
WIRE 864 192 720 192
WIRE 928 192 864 192
WIRE 1088 192 1088 64
WIRE 1088 192 1008 192
WIRE 864 224 864 192
WIRE 1168 224 1168 176
WIRE 1216 224 1168 224
WIRE 1392 224 1296 224
WIRE 416 240 384 240
WIRE 560 240 496 240
WIRE 112 336 -304 336
WIRE 288 336 192 336
WIRE 384 336 384 240
WIRE 384 336 288 336
WIRE 384 352 384 336
WIRE 448 352 384 352
WIRE 560 368 560 240
WIRE 560 368 512 368
WIRE 720 368 720 192
WIRE 720 368 560 368
WIRE 448 384 400 384
WIRE 1168 384 1168 224
WIRE 1248 384 1168 384
WIRE -864 400 -912 400
WIRE -688 400 -784 400
WIRE 1392 400 1392 224
WIRE 1392 400 1312 400
WIRE 1520 400 1520 336
WIRE 1520 400 1392 400
WIRE 400 416 400 384
WIRE 1088 416 1088 192
WIRE 1248 416 1088 416
WIRE -96 448 -160 448
WIRE 16 448 -16 448
WIRE 112 448 16 448
WIRE 288 448 288 336
WIRE 288 448 192 448
WIRE 16 496 16 448
WIRE -1024 560 -1088 560
WIRE -912 560 -912 400
WIRE -912 560 -944 560
WIRE -832 560 -912 560
WIRE 1520 560 1520 400
WIRE 1552 560 1520 560
WIRE -688 576 -688 400
WIRE -688 576 -768 576
WIRE -544 576 -544 528
WIRE -544 576 -688 576
WIRE 1680 576 1616 576
WIRE 1792 576 1744 576
WIRE 1904 576 1792 576
WIRE -832 592 -848 592
WIRE -160 592 -160 448
WIRE -80 592 -160 592
WIRE 16 592 16 560
WIRE 16 592 -16 592
WIRE 1456 592 1456 576
WIRE 1552 592 1456 592
WIRE -1024 688 -1088 688
WIRE -896 688 -944 688
WIRE -848 688 -848 592
WIRE -848 688 -896 688
WIRE -544 704 -544 576
WIRE -304 704 -304 336
WIRE -304 704 -544 704
WIRE -272 704 -304 704
WIRE -160 704 -160 592
WIRE -160 704 -192 704
WIRE -96 704 -160 704
WIRE -896 720 -896 688
WIRE 16 720 16 592
WIRE 16 720 -32 720
WIRE -96 736 -144 736
WIRE -144 784 -144 736
FLAG -784 -192 VCC
FLAG -784 -128 VEE
FLAG -880 64 0
FLAG -1088 -176 P1x
FLAG -1104 -48 P2x
FLAG -800 544 VCC
FLAG -800 608 VEE
FLAG -896 800 0
FLAG -1088 560 P1y
FLAG -1088 688 P2y
FLAG 1280 368 VCC
FLAG 1280 432 VEE
FLAG 1168 96 0
FLAG -528 -192 xdiff
FLAG -544 528 ydiff
FLAG 864 16 abs_xdiff
FLAG 864 224 abs_ydiff
FLAG 1520 336 abs_sum_xdiff_ydiff
FLAG -64 -16 VCC
FLAG -64 48 VEE
FLAG -144 80 0
FLAG 1904 576 collision_detect
FLAG -64 688 VCC
FLAG -64 752 VEE
FLAG -144 784 0
FLAG 480 32 VCC
FLAG 480 96 VEE
FLAG 400 112 0
FLAG 480 336 VCC
FLAG 480 400 VEE
FLAG 400 416 0
FLAG 1584 544 VCC
FLAG 1584 608 VEE
FLAG 1456 672 0
FLAG 1456 496 VCC
FLAG 1792 656 0
FLAG -1344 -304 0
FLAG -1536 -384 VCC
FLAG -1536 -304 0
FLAG -1344 -384 VEE
FLAG -1552 16 0
FLAG -1408 16 0
FLAG -1552 288 0
FLAG -1408 288 0
FLAG -1408 -64 P1y
FLAG -1408 208 P2y
FLAG -1552 208 P2x
FLAG -1552 -64 P1x
SYMBOL Opamps\\UniversalOpamp2 -784 -160 R0
SYMATTR InstName U1
SYMBOL res -752 -352 R90
WINDOW 0 0 56 VBottom 2
WINDOW 3 32 56 VTop 2
SYMATTR InstName R1
SYMATTR Value 10k
SYMBOL res -896 -32 R0
SYMATTR InstName R2
SYMATTR Value 10k
SYMBOL Opamps\\UniversalOpamp2 -800 576 R0
SYMATTR InstName U2
SYMBOL res -768 384 R90
WINDOW 0 0 56 VBottom 2
WINDOW 3 32 56 VTop 2
SYMATTR InstName R3
SYMATTR Value 10k
SYMBOL res -912 704 R0
SYMATTR InstName R4
SYMATTR Value 10k
SYMBOL res -912 -192 R90
WINDOW 0 0 56 VBottom 2
WINDOW 3 32 56 VTop 2
SYMATTR InstName R5
SYMATTR Value 10k
SYMBOL res -912 -64 R90
WINDOW 0 0 56 VBottom 2
WINDOW 3 32 56 VTop 2
SYMATTR InstName R6
SYMATTR Value 10k
SYMBOL res -928 544 R90
WINDOW 0 0 56 VBottom 2
WINDOW 3 32 56 VTop 2
SYMATTR InstName R7
SYMATTR Value 10k
SYMBOL res -928 672 R90
WINDOW 0 0 56 VBottom 2
WINDOW 3 32 56 VTop 2
SYMATTR InstName R8
SYMATTR Value 10k
SYMBOL res 1040 48 R90
WINDOW 0 0 56 VBottom 2
WINDOW 3 32 56 VTop 2
SYMATTR InstName R9
SYMATTR Value 10k
SYMBOL res 1024 176 R90
WINDOW 0 0 56 VBottom 2
WINDOW 3 32 56 VTop 2
SYMATTR InstName R10
SYMATTR Value 10k
SYMBOL Opamps\\UniversalOpamp2 1280 400 R0
SYMATTR InstName U3
SYMBOL res 1312 208 R90
WINDOW 0 0 56 VBottom 2
WINDOW 3 32 56 VTop 2
SYMATTR InstName R11
SYMATTR Value 10k
SYMBOL res 1152 80 R0
SYMATTR InstName R12
SYMATTR Value 5k
SYMBOL Opamps\\UniversalOpamp2 -64 16 R0
SYMATTR InstName U4
SYMBOL res -176 -16 R90
WINDOW 0 0 56 VBottom 2
WINDOW 3 32 56 VTop 2
SYMATTR InstName R13
SYMATTR Value 10k
SYMBOL diode -16 -128 R90
WINDOW 0 0 32 VBottom 2
WINDOW 3 32 32 VTop 2
SYMATTR InstName D1
SYMATTR Value 1N914
SYMBOL diode 0 -208 R0
SYMATTR InstName D2
SYMATTR Value 1N914
SYMBOL res 0 -272 R90
WINDOW 0 0 56 VBottom 2
WINDOW 3 32 56 VTop 2
SYMATTR InstName R14
SYMATTR Value 10k
SYMBOL res 208 -272 R90
WINDOW 0 0 56 VBottom 2
WINDOW 3 32 56 VTop 2
SYMATTR InstName R15
SYMATTR Value 5k
SYMBOL res 208 -384 R90
WINDOW 0 0 56 VBottom 2
WINDOW 3 32 56 VTop 2
SYMATTR InstName R16
SYMATTR Value 10k
SYMBOL Opamps\\UniversalOpamp2 -64 720 R0
SYMATTR InstName U5
SYMBOL res -176 688 R90
WINDOW 0 0 56 VBottom 2
WINDOW 3 32 56 VTop 2
SYMATTR InstName R17
SYMATTR Value 10k
SYMBOL diode -16 576 R90
WINDOW 0 0 32 VBottom 2
WINDOW 3 32 32 VTop 2
SYMATTR InstName D3
SYMATTR Value 1N914
SYMBOL diode 0 496 R0
SYMATTR InstName D4
SYMATTR Value 1N914
SYMBOL res 0 432 R90
WINDOW 0 0 56 VBottom 2
WINDOW 3 32 56 VTop 2
SYMATTR InstName R18
SYMATTR Value 10k
SYMBOL res 208 432 R90
WINDOW 0 0 56 VBottom 2
WINDOW 3 32 56 VTop 2
SYMATTR InstName R19
SYMATTR Value 5k
SYMBOL res 208 320 R90
WINDOW 0 0 56 VBottom 2
WINDOW 3 32 56 VTop 2
SYMATTR InstName R20
SYMATTR Value 10k
SYMBOL Opamps\\UniversalOpamp2 480 64 R0
SYMATTR InstName U6
SYMBOL res 512 -80 R90
WINDOW 0 0 56 VBottom 2
WINDOW 3 32 56 VTop 2
SYMATTR InstName R21
SYMATTR Value 10k
SYMBOL Opamps\\UniversalOpamp2 480 368 R0
SYMATTR InstName U7
SYMBOL res 512 224 R90
WINDOW 0 0 56 VBottom 2
WINDOW 3 32 56 VTop 2
SYMATTR InstName R22
SYMATTR Value 10k
SYMBOL Opamps\\UniversalOpamp2 1584 576 R0
SYMATTR InstName U8
SYMBOL res 1440 480 R0
SYMATTR InstName R23
SYMATTR Value 100k
SYMBOL res 1440 576 R0
SYMATTR InstName R24
SYMATTR Value 5k
SYMBOL diode 1680 592 R270
WINDOW 0 32 32 VTop 2
WINDOW 3 0 32 VBottom 2
SYMATTR InstName D5
SYMATTR Value 1N914
SYMBOL res 1776 560 R0
SYMATTR InstName R25
SYMATTR Value 10k
SYMBOL voltage -1344 -400 R0
WINDOW 123 0 0 Left 2
WINDOW 39 0 0 Left 2
SYMATTR InstName V1
SYMATTR Value -3.3
SYMBOL voltage -1536 -400 R0
WINDOW 123 0 0 Left 2
WINDOW 39 0 0 Left 2
SYMATTR InstName V2
SYMATTR Value 3.3
SYMBOL voltage -1552 -80 R0
WINDOW 0 21 20 Left 2
WINDOW 123 24 124 Left 2
WINDOW 39 0 0 Left 0
SYMATTR InstName V3
SYMATTR Value2 AC 1
SYMATTR Value SINE(1.5 1.5 10)
SYMBOL voltage -1552 192 R0
WINDOW 123 24 124 Left 2
WINDOW 39 0 0 Left 0
SYMATTR Value2 AC 1
SYMATTR InstName V4
SYMATTR Value 1
SYMBOL voltage -1408 192 R0
WINDOW 123 24 124 Left 2
WINDOW 39 0 0 Left 0
SYMATTR Value2 AC 1
SYMATTR InstName V5
SYMATTR Value 1
SYMBOL voltage -1408 -80 R0
WINDOW 0 21 20 Left 2
WINDOW 123 24 124 Left 2
WINDOW 39 0 0 Left 0
SYMATTR InstName V6
SYMATTR Value2 AC 1
SYMATTR Value SINE(1.5 1.5 10)
TEXT 24 -808 Left 2 ;Player 1 vs Player 2
TEXT -136 -736 Left 2 ;makes collision detection go high to supply voltage.
TEXT -280 -768 Left 2 ;No difference between x and y coordinates of player 1 and player 2 position
TEXT -832 -456 Left 2 ;xdiff
TEXT -792 336 Left 2 ;ydiff
TEXT 1168 0 Left 2 ;abs(xdiff) + abs(ydiff)
TEXT -1520 -176 Left 2 ;Player 1
TEXT -1520 136 Left 2 ;Player 2
TEXT -1584 848 Left 2 !.tran 2
TEXT 56 -488 Left 2 ;abs(xdiff)
TEXT 48 224 Left 2 ;abs(ydiff)
TEXT 1600 392 Left 2 ;Comparator
