Version 4
SHEET 1 1776 740
WIRE 1056 0 896 0
WIRE 368 64 224 64
WIRE 896 112 896 0
WIRE 944 112 896 112
WIRE 224 128 224 64
WIRE 256 128 224 128
WIRE 1056 128 1056 0
WIRE 1056 128 1008 128
WIRE 1104 128 1056 128
WIRE 368 144 368 64
WIRE 368 144 320 144
WIRE 480 144 480 96
WIRE 480 144 368 144
WIRE 624 144 480 144
WIRE 768 144 704 144
WIRE 944 144 768 144
WIRE 256 160 -32 160
WIRE 624 208 624 144
WIRE 768 224 768 144
WIRE 432 288 432 256
WIRE 576 288 432 288
WIRE 704 304 704 144
WIRE 704 304 624 304
WIRE 768 304 768 288
FLAG 976 96 VCC
FLAG 976 160 VEE
FLAG -336 192 0
FLAG -528 112 VCC
FLAG -528 192 0
FLAG -336 112 VEE
FLAG -576 560 0
FLAG -576 480 input_signal
FLAG 432 256 sample
FLAG -32 160 input_signal
FLAG 1104 128 output
FLAG -96 592 0
FLAG -96 512 sample
FLAG 768 304 0
FLAG 480 96 in_buffer
FLAG 288 112 VCC
FLAG 288 176 VEE
DATAFLAG 624 192 ""
DATAFLAG 544 288 ""
SYMBOL Opamps\\UniversalOpamp2 976 128 R0
SYMATTR InstName U1
SYMBOL voltage -336 96 R0
WINDOW 123 0 0 Left 2
WINDOW 39 0 0 Left 2
SYMATTR InstName V1
SYMATTR Value -5
SYMBOL voltage -528 96 R0
WINDOW 123 0 0 Left 2
WINDOW 39 0 0 Left 2
SYMATTR InstName V2
SYMATTR Value 5
SYMBOL voltage -576 464 R0
WINDOW 0 21 20 Left 2
WINDOW 123 24 124 Left 2
WINDOW 39 0 0 Left 0
SYMATTR InstName V3
SYMATTR Value2 AC 1
SYMATTR Value SINE(2.5 2.5 1k)
SYMBOL cap 752 224 R0
SYMATTR InstName C1
SYMATTR Value 100n
SYMBOL nmos 576 208 R0
SYMATTR InstName M1
SYMATTR Value RSJ400N10
SYMBOL voltage -96 496 R0
WINDOW 0 21 20 Left 2
WINDOW 123 24 124 Left 2
WINDOW 39 0 0 Left 0
SYMATTR InstName V5
SYMATTR Value2 AC 1
SYMATTR Value SINE(0 2.5 0.1k)
SYMBOL Opamps\\UniversalOpamp2 288 144 R0
SYMATTR InstName U2
TEXT 576 64 Left 2 ;Sample/hold control
TEXT -368 344 Left 2 !.tran 0 0.1s 0 10us
TEXT -352 264 Left 2 !;ac dec 10 1 1G
TEXT -232 400 Left 2 !.op
TEXT -296 696 Left 2 ;Sample at 5V, hold at 0V
TEXT 880 336 Left 2 ;Note: Mosfet resistance and capacitor can form a filter with RC time constant.
