Version 4
SHEET 1 5224 1764
WIRE 2144 -336 2144 -352
WIRE 2336 -336 2144 -336
WIRE 2336 -304 2336 -336
WIRE 2528 -304 2336 -304
WIRE 2336 -176 2336 -304
WIRE 2528 -160 2528 -304
WIRE 2336 -80 2336 -96
WIRE 2400 -80 2336 -80
WIRE 2528 -64 2528 -80
WIRE 2576 -64 2528 -64
WIRE 2336 -48 2336 -80
WIRE 2528 -48 2528 -64
WIRE 3408 -32 3280 -32
WIRE 3280 64 3280 -32
WIRE 3312 64 3280 64
WIRE 3408 80 3408 -32
WIRE 3408 80 3376 80
WIRE 3488 80 3408 80
WIRE 3200 96 3200 80
WIRE 3312 96 3200 96
WIRE 3888 128 3888 80
WIRE 3936 128 3888 128
WIRE 4112 128 4016 128
WIRE 3488 176 3488 80
WIRE 3712 176 3568 176
WIRE 3392 288 3264 288
WIRE 3456 288 3392 288
WIRE 3488 288 3456 288
WIRE 3712 288 3712 176
WIRE 3712 288 3568 288
WIRE 3760 288 3712 288
WIRE 3888 288 3888 128
WIRE 3968 288 3888 288
WIRE 4112 304 4112 128
WIRE 4112 304 4032 304
WIRE 4160 304 4112 304
WIRE 4176 304 4160 304
WIRE 3760 320 3760 288
WIRE 3968 320 3760 320
WIRE 3216 416 3088 416
WIRE 3488 416 3376 416
WIRE 3712 416 3712 288
WIRE 3712 416 3568 416
WIRE 3088 512 3088 416
WIRE 3104 512 3088 512
WIRE 3216 528 3216 416
WIRE 3216 528 3168 528
WIRE 3376 528 3376 416
WIRE 3376 528 3216 528
WIRE 3104 544 3072 544
WIRE 2848 576 2832 576
WIRE 2960 576 2928 576
WIRE 3072 576 3072 544
WIRE 3072 576 2960 576
WIRE 2832 656 2832 576
FLAG 4000 272 VCC
FLAG 4000 336 VEE
FLAG 2496 752 0
FLAG 2304 672 VCC
FLAG 2336 32 0
FLAG 2400 -80 Pposx
FLAG 2528 32 0
FLAG 2576 -64 Wposx
FLAG 2144 -352 VCC
FLAG 2304 752 0
FLAG 2496 672 VEE
FLAG 4160 304 Vout_wcox
FLAG 3136 496 VCC
FLAG 3136 560 VEE
FLAG 3264 208 VEE
FLAG 3264 368 0
FLAG 3200 80 Pposx
FLAG 3888 0 0
FLAG 3344 48 VCC
FLAG 3344 112 VEE
FLAG 2832 736 0
FLAG 3392 352 0
FLAG 2960 656 0
FLAG 3456 352 0
SYMBOL res 3584 272 R90
WINDOW 0 0 56 VBottom 2
WINDOW 3 32 56 VTop 2
SYMATTR InstName R3
SYMATTR Value 100k
SYMBOL Opamps\\UniversalOpamp2 4000 304 R0
SYMATTR InstName U2
SYMBOL voltage 2496 656 R0
WINDOW 123 0 0 Left 2
WINDOW 39 0 0 Left 2
SYMATTR InstName V2
SYMATTR Value -5
SYMBOL res 2320 -64 R0
SYMATTR InstName R16
SYMATTR Value 50k
SYMBOL res 2320 -192 R0
SYMATTR InstName R17
SYMATTR Value 50k
SYMBOL res 2512 -64 R0
SYMATTR InstName R18
SYMATTR Value 50k
SYMBOL res 2512 -176 R0
SYMATTR InstName R19
SYMATTR Value 50k
SYMBOL voltage 2304 656 R0
WINDOW 123 0 0 Left 2
WINDOW 39 0 0 Left 2
SYMATTR InstName V1
SYMATTR Value 5
SYMBOL Opamps\\UniversalOpamp2 3136 528 R0
SYMATTR InstName U1
SYMBOL res 3248 192 R0
SYMATTR InstName R7
SYMATTR Value 100k
SYMBOL res 3248 272 R0
SYMATTR InstName R8
SYMATTR Value 5k
SYMBOL res 3584 160 R90
WINDOW 0 0 56 VBottom 2
WINDOW 3 32 56 VTop 2
SYMATTR InstName R2
SYMATTR Value 100k
SYMBOL res 4032 112 R90
WINDOW 0 0 56 VBottom 2
WINDOW 3 32 56 VTop 2
SYMATTR InstName R4
SYMATTR Value 100k
SYMBOL res 3872 -16 R0
SYMATTR InstName R5
SYMATTR Value 50k
SYMBOL Opamps\\UniversalOpamp2 3344 80 R0
SYMATTR InstName U3
SYMBOL voltage 2832 640 R0
WINDOW 123 0 0 Left 0
WINDOW 39 0 0 Left 0
SYMATTR InstName V3
SYMATTR Value SINE(2.5 2.5 100)
SYMBOL cap 3376 288 R0
SYMATTR InstName C1
SYMATTR Value 1µ
SYMBOL res 2944 560 R0
SYMATTR InstName R6
SYMATTR Value 10k
SYMBOL res 2944 560 R90
WINDOW 0 0 56 VBottom 2
WINDOW 3 32 56 VTop 2
SYMATTR InstName R9
SYMATTR Value 100k
SYMBOL cap 3440 288 R0
SYMATTR InstName C3
SYMATTR Value 1p
SYMBOL res 3584 400 R90
WINDOW 0 0 56 VBottom 2
WINDOW 3 32 56 VTop 2
SYMATTR InstName R1
SYMATTR Value 100k
TEXT 2264 560 Left 2 !.tran 0 0.5s 0 10us startup uic
